      1 'GENSAL' 1     8.9600      0.50000E-01  0.50000E-01   9.5500
          1.6000      0.36150      0.24000      0.15080      0.10000
         0.60000E-01   1.0100       1.0200      /
      1 'PSS2A'  1          1            0            3            0
               5            1       2.0000       2.0000      0.10000
          2.0000       4.0000       2.0000      0.25000       1.0000
         0.50000      0.10000       30.000      0.15000      0.30000E-01
         0.15000      0.30000E-01  0.10000     -0.10000     /
      1 'SCRX'   1    0.10000       10.010       900.00      0.10000E-01
         -4.0000       5.0000       0.0000       0.0000     /
      1 'HYGOV'  1    0.50000E-01  0.50000       6.0000      0.50000E-01
         0.50000      0.16700       1.0000      0.80000E-01   2.0000
          1.2000      0.20000      0.80000E-01  /
      2 'GENROU' 1     6.0000      0.50000E-01  0.53500      0.50000E-01
          3.3300      0.67000       1.7200       1.6600      0.23000
         0.37000      0.21000      0.10000       1.0100       1.0200      /
      2 'PSS2A'  1          1            0            3            0
               5            1       2.0000       2.0000      0.10000
          2.0000       4.0000       2.0000      0.25000       1.0000
         0.50000      0.10000       30.000      0.15000      0.30000E-01
         0.15000      0.30000E-01  0.10000     -0.10000     /
      2 'SCRX'   1    0.10000       10.010       900.00      0.10000E-01
         -4.0000       5.0000       0.0000       0.0000     /
      2 'TGOV1'  1    0.50000E-01   1.0000       1.0000       0.0000
          1.5000      0.75000      0.10000      /
      3 'GENROU' 1     5.8900      0.50000E-01  0.60000      0.50000E-01
          2.3500      0.47000       1.6800       1.6100      0.23206
         0.32000      0.21000      0.15360       1.0100       1.0200      /
      3 'PSS2A'  1          1            0            3            0
               5            1       2.0000       2.0000      0.10000
          2.0000       4.0000       2.0000      0.25000       1.0000
         0.50000      0.10000       30.000      0.15000      0.30000E-01
         0.15000      0.30000E-01  0.10000     -0.10000     /
      3 'SCRX'   1    0.10000       10.010       900.00      0.10000E-01
         -4.0000       5.0000       0.0000       0.0000     /
      3 'TGOV1'  1    0.50000E-01   1.0000       1.0000       0.0000
          1.5000      0.75000      0.10000      /
