      1 'GENROU' 1     6.0000      0.50000E-01  0.53500      0.50000E-01
          3.3300      0.67000       1.7200       1.6600      0.23000
         0.37000      0.21000      0.10000       1.0100       1.0200      /
      1 'STAB1'  1    0.13000       2.0000       5.0000      0.30000E-01
          5.0000      0.30000E-01   1.1500      /
      1 'SCRX'   1    0.10000       10.010       900.00      0.10000E-01
         -4.0000       5.0000       0.0000       0.0000     /
      1 'TGOV1'  1    0.50000E-01   1.0000       1.0000       0.0000
          1.5000      0.75000      0.10000      /
      2 'GENROU' 1     6.0000      0.50000E-01  0.53500      0.50000E-01
          3.3300      0.67000       1.7200       1.6600      0.23000
         0.37000      0.21000      0.10000       1.0100       1.0200      /
      2 'STAB1'  1    0.13000       2.0000       5.0000      0.30000E-01
          5.0000      0.30000E-01   1.1500      /
      2 'SCRX'   1    0.10000       10.010       900.00      0.10000E-01
         -4.0000       5.0000       0.0000       0.0000     /
      2 'GAST'   1    0.40000E-01  0.90000      0.60000       1.0000
          1.0000       2.0000       1.0000      0.20000       2.0000      /
      3 'GENROU' 1     5.8900      0.50000E-01  0.60000      0.50000E-01
          2.3500      0.47000       1.6800       1.6100      0.23206
         0.32000      0.21000      0.15360       1.0100       1.0200      /
      3 'STAB1'  1    0.13000       2.0000       5.0000      0.30000E-01
          5.0000      0.30000E-01   1.1500      /
      3 'SCRX'   1    0.10000       10.010       900.00      0.10000E-01
         -4.0000       5.0000       0.0000       0.0000     /
      3 'GAST'   1    0.40000E-01  0.90000      0.60000       1.0000
          1.0000       2.0000       1.0000      0.20000       2.0000      /
